<?xml version="1.0" encoding="UTF-8"?>

<!-- generated on 2026-03-12T15:47:03.147770+05:30 by Eclipse SUMO netgenerate 1.26.0
<netgenerateConfiguration xmlns:xsi="http://www.w3.org/2001/XMLSchema-instance" xsi:noNamespaceSchemaLocation="http://sumo.dlr.de/xsd/netgenerateConfiguration.xsd">

    <grid_network>
        <grid value="true"/>
        <grid.number value="5"/>
        <grid.length value="400"/>
    </grid_network>

    <output>
        <output-file value="smartmarl/configs/grid5x5/grid5x5.net.xml"/>
    </output>

    <building_defaults>
        <default.speed value="13.9"/>
    </building_defaults>

    <tls_building>
        <tls.guess value="true"/>
    </tls_building>

</netgenerateConfiguration>
-->

<net version="1.20" junctionCornerDetail="5" limitTurnSpeed="5.50" xmlns:xsi="http://www.w3.org/2001/XMLSchema-instance" xsi:noNamespaceSchemaLocation="http://sumo.dlr.de/xsd/net_file.xsd">

    <location netOffset="0.00,0.00" convBoundary="0.00,0.00,1600.00,1600.00" origBoundary="0.00,0.00,1600.00,1600.00" projParameter="!"/>

    <edge id=":A0_0" function="internal">
        <lane id=":A0_0_0" index="0" speed="6.08" length="7.74" shape="-1.60,3.20 -1.30,1.10 -0.40,-0.40 1.10,-1.30 3.20,-1.60"/>
    </edge>
    <edge id=":A0_1" function="internal">
        <lane id=":A0_1_0" index="0" speed="3.90" length="2.58" shape="3.20,1.60 2.50,1.70 2.00,2.00 1.70,2.50 1.60,3.20"/>
    </edge>
    <edge id=":A1_0" function="internal">
        <lane id=":A1_0_0" index="0" speed="13.90" length="14.40" shape="-1.60,407.20 -1.60,392.80"/>
    </edge>
    <edge id=":A1_1" function="internal">
        <lane id=":A1_1_0" index="0" speed="8.00" length="4.07" shape="-1.60,407.20 -1.05,403.35 -0.96,403.20"/>
    </edge>
    <edge id=":A1_2" function="internal">
        <lane id=":A1_2_0" index="0" speed="3.65" length="1.44" shape="-1.60,407.20 -0.80,406.00"/>
    </edge>
    <edge id=":A1_9" function="internal">
        <lane id=":A1_9_0" index="0" speed="8.00" length="10.13" shape="-0.96,403.20 0.60,400.60 3.35,398.95 7.20,398.40"/>
    </edge>
    <edge id=":A1_10" function="internal">
        <lane id=":A1_10_0" index="0" speed="3.65" length="3.23" shape="-0.80,406.00 0.00,405.60 0.80,406.00 1.60,407.20"/>
    </edge>
    <edge id=":A1_3" function="internal">
        <lane id=":A1_3_0" index="0" speed="6.51" length="9.03" shape="7.20,401.60 4.75,401.95 3.00,403.00 1.95,404.75 1.60,407.20"/>
    </edge>
    <edge id=":A1_4" function="internal">
        <lane id=":A1_4_0" index="0" speed="8.00" length="14.19" shape="7.20,401.60 3.35,401.05 0.60,399.40 -1.05,396.65 -1.60,392.80"/>
    </edge>
    <edge id=":A1_5" function="internal">
        <lane id=":A1_5_0" index="0" speed="3.65" length="4.67" shape="7.20,401.60 6.00,400.80 5.60,400.00 6.00,399.20 7.20,398.40"/>
    </edge>
    <edge id=":A1_6" function="internal">
        <lane id=":A1_6_0" index="0" speed="6.51" length="9.03" shape="1.60,392.80 1.95,395.25 3.00,397.00 4.75,398.05 7.20,398.40"/>
    </edge>
    <edge id=":A1_7" function="internal">
        <lane id=":A1_7_0" index="0" speed="13.90" length="14.40" shape="1.60,392.80 1.60,407.20"/>
    </edge>
    <edge id=":A1_8" function="internal">
        <lane id=":A1_8_0" index="0" speed="3.65" length="1.44" shape="1.60,392.80 0.80,394.00"/>
    </edge>
    <edge id=":A1_11" function="internal">
        <lane id=":A1_11_0" index="0" speed="3.65" length="3.23" shape="0.80,394.00 0.00,394.40 -0.80,394.00 -1.60,392.80"/>
    </edge>
    <edge id=":A2_0" function="internal">
        <lane id=":A2_0_0" index="0" speed="13.90" length="14.40" shape="-1.60,807.20 -1.60,792.80"/>
    </edge>
    <edge id=":A2_1" function="internal">
        <lane id=":A2_1_0" index="0" speed="8.00" length="4.07" shape="-1.60,807.20 -1.05,803.35 -0.96,803.20"/>
    </edge>
    <edge id=":A2_2" function="internal">
        <lane id=":A2_2_0" index="0" speed="3.65" length="1.44" shape="-1.60,807.20 -0.80,806.00"/>
    </edge>
    <edge id=":A2_9" function="internal">
        <lane id=":A2_9_0" index="0" speed="8.00" length="10.13" shape="-0.96,803.20 0.60,800.60 3.35,798.95 7.20,798.40"/>
    </edge>
    <edge id=":A2_10" function="internal">
        <lane id=":A2_10_0" index="0" speed="3.65" length="3.23" shape="-0.80,806.00 0.00,805.60 0.80,806.00 1.60,807.20"/>
    </edge>
    <edge id=":A2_3" function="internal">
        <lane id=":A2_3_0" index="0" speed="6.51" length="9.03" shape="7.20,801.60 4.75,801.95 3.00,803.00 1.95,804.75 1.60,807.20"/>
    </edge>
    <edge id=":A2_4" function="internal">
        <lane id=":A2_4_0" index="0" speed="8.00" length="14.19" shape="7.20,801.60 3.35,801.05 0.60,799.40 -1.05,796.65 -1.60,792.80"/>
    </edge>
    <edge id=":A2_5" function="internal">
        <lane id=":A2_5_0" index="0" speed="3.65" length="4.67" shape="7.20,801.60 6.00,800.80 5.60,800.00 6.00,799.20 7.20,798.40"/>
    </edge>
    <edge id=":A2_6" function="internal">
        <lane id=":A2_6_0" index="0" speed="6.51" length="9.03" shape="1.60,792.80 1.95,795.25 3.00,797.00 4.75,798.05 7.20,798.40"/>
    </edge>
    <edge id=":A2_7" function="internal">
        <lane id=":A2_7_0" index="0" speed="13.90" length="14.40" shape="1.60,792.80 1.60,807.20"/>
    </edge>
    <edge id=":A2_8" function="internal">
        <lane id=":A2_8_0" index="0" speed="3.65" length="1.44" shape="1.60,792.80 0.80,794.00"/>
    </edge>
    <edge id=":A2_11" function="internal">
        <lane id=":A2_11_0" index="0" speed="3.65" length="3.23" shape="0.80,794.00 0.00,794.40 -0.80,794.00 -1.60,792.80"/>
    </edge>
    <edge id=":A3_0" function="internal">
        <lane id=":A3_0_0" index="0" speed="13.90" length="14.40" shape="-1.60,1207.20 -1.60,1192.80"/>
    </edge>
    <edge id=":A3_1" function="internal">
        <lane id=":A3_1_0" index="0" speed="8.00" length="4.07" shape="-1.60,1207.20 -1.05,1203.35 -0.96,1203.20"/>
    </edge>
    <edge id=":A3_2" function="internal">
        <lane id=":A3_2_0" index="0" speed="3.65" length="1.44" shape="-1.60,1207.20 -0.80,1206.00"/>
    </edge>
    <edge id=":A3_9" function="internal">
        <lane id=":A3_9_0" index="0" speed="8.00" length="10.13" shape="-0.96,1203.20 0.60,1200.60 3.35,1198.95 7.20,1198.40"/>
    </edge>
    <edge id=":A3_10" function="internal">
        <lane id=":A3_10_0" index="0" speed="3.65" length="3.23" shape="-0.80,1206.00 0.00,1205.60 0.80,1206.00 1.60,1207.20"/>
    </edge>
    <edge id=":A3_3" function="internal">
        <lane id=":A3_3_0" index="0" speed="6.51" length="9.03" shape="7.20,1201.60 4.75,1201.95 3.00,1203.00 1.95,1204.75 1.60,1207.20"/>
    </edge>
    <edge id=":A3_4" function="internal">
        <lane id=":A3_4_0" index="0" speed="8.00" length="14.19" shape="7.20,1201.60 3.35,1201.05 0.60,1199.40 -1.05,1196.65 -1.60,1192.80"/>
    </edge>
    <edge id=":A3_5" function="internal">
        <lane id=":A3_5_0" index="0" speed="3.65" length="4.67" shape="7.20,1201.60 6.00,1200.80 5.60,1200.00 6.00,1199.20 7.20,1198.40"/>
    </edge>
    <edge id=":A3_6" function="internal">
        <lane id=":A3_6_0" index="0" speed="6.51" length="9.03" shape="1.60,1192.80 1.95,1195.25 3.00,1197.00 4.75,1198.05 7.20,1198.40"/>
    </edge>
    <edge id=":A3_7" function="internal">
        <lane id=":A3_7_0" index="0" speed="13.90" length="14.40" shape="1.60,1192.80 1.60,1207.20"/>
    </edge>
    <edge id=":A3_8" function="internal">
        <lane id=":A3_8_0" index="0" speed="3.65" length="1.44" shape="1.60,1192.80 0.80,1194.00"/>
    </edge>
    <edge id=":A3_11" function="internal">
        <lane id=":A3_11_0" index="0" speed="3.65" length="3.23" shape="0.80,1194.00 0.00,1194.40 -0.80,1194.00 -1.60,1192.80"/>
    </edge>
    <edge id=":A4_0" function="internal">
        <lane id=":A4_0_0" index="0" speed="6.08" length="7.74" shape="3.20,1601.60 1.10,1601.30 -0.40,1600.40 -1.30,1598.90 -1.60,1596.80"/>
    </edge>
    <edge id=":A4_1" function="internal">
        <lane id=":A4_1_0" index="0" speed="3.90" length="2.58" shape="1.60,1596.80 1.70,1597.50 2.00,1598.00 2.50,1598.30 3.20,1598.40"/>
    </edge>
    <edge id=":B0_0" function="internal">
        <lane id=":B0_0_0" index="0" speed="6.51" length="9.03" shape="398.40,7.20 398.05,4.75 397.00,3.00 395.25,1.95 392.80,1.60"/>
    </edge>
    <edge id=":B0_1" function="internal">
        <lane id=":B0_1_0" index="0" speed="8.00" length="14.19" shape="398.40,7.20 398.95,3.35 400.60,0.60 403.35,-1.05 407.20,-1.60"/>
    </edge>
    <edge id=":B0_2" function="internal">
        <lane id=":B0_2_0" index="0" speed="3.65" length="4.67" shape="398.40,7.20 399.20,6.00 400.00,5.60 400.80,6.00 401.60,7.20"/>
    </edge>
    <edge id=":B0_3" function="internal">
        <lane id=":B0_3_0" index="0" speed="6.51" length="9.03" shape="407.20,1.60 404.75,1.95 403.00,3.00 401.95,4.75 401.60,7.20"/>
    </edge>
    <edge id=":B0_4" function="internal">
        <lane id=":B0_4_0" index="0" speed="13.90" length="14.40" shape="407.20,1.60 392.80,1.60"/>
    </edge>
    <edge id=":B0_5" function="internal">
        <lane id=":B0_5_0" index="0" speed="3.65" length="1.44" shape="407.20,1.60 406.00,0.80"/>
    </edge>
    <edge id=":B0_9" function="internal">
        <lane id=":B0_9_0" index="0" speed="3.65" length="3.23" shape="406.00,0.80 405.60,0.00 406.00,-0.80 407.20,-1.60"/>
    </edge>
    <edge id=":B0_6" function="internal">
        <lane id=":B0_6_0" index="0" speed="13.90" length="14.40" shape="392.80,-1.60 407.20,-1.60"/>
    </edge>
    <edge id=":B0_7" function="internal">
        <lane id=":B0_7_0" index="0" speed="8.00" length="4.07" shape="392.80,-1.60 396.65,-1.05 396.80,-0.96"/>
    </edge>
    <edge id=":B0_8" function="internal">
        <lane id=":B0_8_0" index="0" speed="3.65" length="1.44" shape="392.80,-1.60 394.00,-0.80"/>
    </edge>
    <edge id=":B0_10" function="internal">
        <lane id=":B0_10_0" index="0" speed="8.00" length="10.13" shape="396.80,-0.96 399.40,0.60 401.05,3.35 401.60,7.20"/>
    </edge>
    <edge id=":B0_11" function="internal">
        <lane id=":B0_11_0" index="0" speed="3.65" length="3.23" shape="394.00,-0.80 394.40,0.00 394.00,0.80 392.80,1.60"/>
    </edge>
    <edge id=":B1_0" function="internal">
        <lane id=":B1_0_0" index="0" speed="6.51" length="9.03" shape="398.40,407.20 398.05,404.75 397.00,403.00 395.25,401.95 392.80,401.60"/>
    </edge>
    <edge id=":B1_1" function="internal">
        <lane id=":B1_1_0" index="0" speed="13.90" length="14.40" shape="398.40,407.20 398.40,392.80"/>
    </edge>
    <edge id=":B1_2" function="internal">
        <lane id=":B1_2_0" index="0" speed="8.00" length="4.07" shape="398.40,407.20 398.95,403.35 399.04,403.20"/>
    </edge>
    <edge id=":B1_3" function="internal">
        <lane id=":B1_3_0" index="0" speed="3.65" length="1.44" shape="398.40,407.20 399.20,406.00"/>
    </edge>
    <edge id=":B1_16" function="internal">
        <lane id=":B1_16_0" index="0" speed="8.00" length="10.13" shape="399.04,403.20 400.60,400.60 403.35,398.95 407.20,398.40"/>
    </edge>
    <edge id=":B1_17" function="internal">
        <lane id=":B1_17_0" index="0" speed="3.65" length="3.23" shape="399.20,406.00 400.00,405.60 400.80,406.00 401.60,407.20"/>
    </edge>
    <edge id=":B1_4" function="internal">
        <lane id=":B1_4_0" index="0" speed="6.51" length="9.03" shape="407.20,401.60 404.75,401.95 403.00,403.00 401.95,404.75 401.60,407.20"/>
    </edge>
    <edge id=":B1_5" function="internal">
        <lane id=":B1_5_0" index="0" speed="13.90" length="14.40" shape="407.20,401.60 392.80,401.60"/>
    </edge>
    <edge id=":B1_6" function="internal">
        <lane id=":B1_6_0" index="0" speed="8.00" length="14.19" shape="407.20,401.60 403.35,401.05 400.60,399.40 398.95,396.65 398.40,392.80"/>
    </edge>
    <edge id=":B1_7" function="internal">
        <lane id=":B1_7_0" index="0" speed="3.65" length="4.67" shape="407.20,401.60 406.00,400.80 405.60,400.00 406.00,399.20 407.20,398.40"/>
    </edge>
    <edge id=":B1_8" function="internal">
        <lane id=":B1_8_0" index="0" speed="6.51" length="9.03" shape="401.60,392.80 401.95,395.25 403.00,397.00 404.75,398.05 407.20,398.40"/>
    </edge>
    <edge id=":B1_9" function="internal">
        <lane id=":B1_9_0" index="0" speed="13.90" length="14.40" shape="401.60,392.80 401.60,407.20"/>
    </edge>
    <edge id=":B1_10" function="internal">
        <lane id=":B1_10_0" index="0" speed="8.00" length="4.07" shape="401.60,392.80 401.05,396.65 400.96,396.80"/>
    </edge>
    <edge id=":B1_11" function="internal">
        <lane id=":B1_11_0" index="0" speed="3.65" length="1.44" shape="401.60,392.80 400.80,394.00"/>
    </edge>
    <edge id=":B1_18" function="internal">
        <lane id=":B1_18_0" index="0" speed="8.00" length="10.13" shape="400.96,396.80 399.40,399.40 396.65,401.05 392.80,401.60"/>
    </edge>
    <edge id=":B1_19" function="internal">
        <lane id=":B1_19_0" index="0" speed="3.65" length="3.23" shape="400.80,394.00 400.00,394.40 399.20,394.00 398.40,392.80"/>
    </edge>
    <edge id=":B1_12" function="internal">
        <lane id=":B1_12_0" index="0" speed="6.51" length="9.03" shape="392.80,398.40 395.25,398.05 397.00,397.00 398.05,395.25 398.40,392.80"/>
    </edge>
    <edge id=":B1_13" function="internal">
        <lane id=":B1_13_0" index="0" speed="13.90" length="14.40" shape="392.80,398.40 407.20,398.40"/>
    </edge>
    <edge id=":B1_14" function="internal">
        <lane id=":B1_14_0" index="0" speed="8.00" length="14.19" shape="392.80,398.40 396.65,398.95 399.40,400.60 401.05,403.35 401.60,407.20"/>
    </edge>
    <edge id=":B1_15" function="internal">
        <lane id=":B1_15_0" index="0" speed="3.65" length="4.67" shape="392.80,398.40 394.00,399.20 394.40,400.00 394.00,400.80 392.80,401.60"/>
    </edge>
    <edge id=":B2_0" function="internal">
        <lane id=":B2_0_0" index="0" speed="6.51" length="9.03" shape="398.40,807.20 398.05,804.75 397.00,803.00 395.25,801.95 392.80,801.60"/>
    </edge>
    <edge id=":B2_1" function="internal">
        <lane id=":B2_1_0" index="0" speed="13.90" length="14.40" shape="398.40,807.20 398.40,792.80"/>
    </edge>
    <edge id=":B2_2" function="internal">
        <lane id=":B2_2_0" index="0" speed="8.00" length="4.07" shape="398.40,807.20 398.95,803.35 399.04,803.20"/>
    </edge>
    <edge id=":B2_3" function="internal">
        <lane id=":B2_3_0" index="0" speed="3.65" length="1.44" shape="398.40,807.20 399.20,806.00"/>
    </edge>
    <edge id=":B2_16" function="internal">
        <lane id=":B2_16_0" index="0" speed="8.00" length="10.13" shape="399.04,803.20 400.60,800.60 403.35,798.95 407.20,798.40"/>
    </edge>
    <edge id=":B2_17" function="internal">
        <lane id=":B2_17_0" index="0" speed="3.65" length="3.23" shape="399.20,806.00 400.00,805.60 400.80,806.00 401.60,807.20"/>
    </edge>
    <edge id=":B2_4" function="internal">
        <lane id=":B2_4_0" index="0" speed="6.51" length="9.03" shape="407.20,801.60 404.75,801.95 403.00,803.00 401.95,804.75 401.60,807.20"/>
    </edge>
    <edge id=":B2_5" function="internal">
        <lane id=":B2_5_0" index="0" speed="13.90" length="14.40" shape="407.20,801.60 392.80,801.60"/>
    </edge>
    <edge id=":B2_6" function="internal">
        <lane id=":B2_6_0" index="0" speed="8.00" length="14.19" shape="407.20,801.60 403.35,801.05 400.60,799.40 398.95,796.65 398.40,792.80"/>
    </edge>
    <edge id=":B2_7" function="internal">
        <lane id=":B2_7_0" index="0" speed="3.65" length="4.67" shape="407.20,801.60 406.00,800.80 405.60,800.00 406.00,799.20 407.20,798.40"/>
    </edge>
    <edge id=":B2_8" function="internal">
        <lane id=":B2_8_0" index="0" speed="6.51" length="9.03" shape="401.60,792.80 401.95,795.25 403.00,797.00 404.75,798.05 407.20,798.40"/>
    </edge>
    <edge id=":B2_9" function="internal">
        <lane id=":B2_9_0" index="0" speed="13.90" length="14.40" shape="401.60,792.80 401.60,807.20"/>
    </edge>
    <edge id=":B2_10" function="internal">
        <lane id=":B2_10_0" index="0" speed="8.00" length="4.07" shape="401.60,792.80 401.05,796.65 400.96,796.80"/>
    </edge>
    <edge id=":B2_11" function="internal">
        <lane id=":B2_11_0" index="0" speed="3.65" length="1.44" shape="401.60,792.80 400.80,794.00"/>
    </edge>
    <edge id=":B2_18" function="internal">
        <lane id=":B2_18_0" index="0" speed="8.00" length="10.13" shape="400.96,796.80 399.40,799.40 396.65,801.05 392.80,801.60"/>
    </edge>
    <edge id=":B2_19" function="internal">
        <lane id=":B2_19_0" index="0" speed="3.65" length="3.23" shape="400.80,794.00 400.00,794.40 399.20,794.00 398.40,792.80"/>
    </edge>
    <edge id=":B2_12" function="internal">
        <lane id=":B2_12_0" index="0" speed="6.51" length="9.03" shape="392.80,798.40 395.25,798.05 397.00,797.00 398.05,795.25 398.40,792.80"/>
    </edge>
    <edge id=":B2_13" function="internal">
        <lane id=":B2_13_0" index="0" speed="13.90" length="14.40" shape="392.80,798.40 407.20,798.40"/>
    </edge>
    <edge id=":B2_14" function="internal">
        <lane id=":B2_14_0" index="0" speed="8.00" length="14.19" shape="392.80,798.40 396.65,798.95 399.40,800.60 401.05,803.35 401.60,807.20"/>
    </edge>
    <edge id=":B2_15" function="internal">
        <lane id=":B2_15_0" index="0" speed="3.65" length="4.67" shape="392.80,798.40 394.00,799.20 394.40,800.00 394.00,800.80 392.80,801.60"/>
    </edge>
    <edge id=":B3_0" function="internal">
        <lane id=":B3_0_0" index="0" speed="6.51" length="9.03" shape="398.40,1207.20 398.05,1204.75 397.00,1203.00 395.25,1201.95 392.80,1201.60"/>
    </edge>
    <edge id=":B3_1" function="internal">
        <lane id=":B3_1_0" index="0" speed="13.90" length="14.40" shape="398.40,1207.20 398.40,1192.80"/>
    </edge>
    <edge id=":B3_2" function="internal">
        <lane id=":B3_2_0" index="0" speed="8.00" length="4.07" shape="398.40,1207.20 398.95,1203.35 399.04,1203.20"/>
    </edge>
    <edge id=":B3_3" function="internal">
        <lane id=":B3_3_0" index="0" speed="3.65" length="1.44" shape="398.40,1207.20 399.20,1206.00"/>
    </edge>
    <edge id=":B3_16" function="internal">
        <lane id=":B3_16_0" index="0" speed="8.00" length="10.13" shape="399.04,1203.20 400.60,1200.60 403.35,1198.95 407.20,1198.40"/>
    </edge>
    <edge id=":B3_17" function="internal">
        <lane id=":B3_17_0" index="0" speed="3.65" length="3.23" shape="399.20,1206.00 400.00,1205.60 400.80,1206.00 401.60,1207.20"/>
    </edge>
    <edge id=":B3_4" function="internal">
        <lane id=":B3_4_0" index="0" speed="6.51" length="9.03" shape="407.20,1201.60 404.75,1201.95 403.00,1203.00 401.95,1204.75 401.60,1207.20"/>
    </edge>
    <edge id=":B3_5" function="internal">
        <lane id=":B3_5_0" index="0" speed="13.90" length="14.40" shape="407.20,1201.60 392.80,1201.60"/>
    </edge>
    <edge id=":B3_6" function="internal">
        <lane id=":B3_6_0" index="0" speed="8.00" length="14.19" shape="407.20,1201.60 403.35,1201.05 400.60,1199.40 398.95,1196.65 398.40,1192.80"/>
    </edge>
    <edge id=":B3_7" function="internal">
        <lane id=":B3_7_0" index="0" speed="3.65" length="4.67" shape="407.20,1201.60 406.00,1200.80 405.60,1200.00 406.00,1199.20 407.20,1198.40"/>
    </edge>
    <edge id=":B3_8" function="internal">
        <lane id=":B3_8_0" index="0" speed="6.51" length="9.03" shape="401.60,1192.80 401.95,1195.25 403.00,1197.00 404.75,1198.05 407.20,1198.40"/>
    </edge>
    <edge id=":B3_9" function="internal">
        <lane id=":B3_9_0" index="0" speed="13.90" length="14.40" shape="401.60,1192.80 401.60,1207.20"/>
    </edge>
    <edge id=":B3_10" function="internal">
        <lane id=":B3_10_0" index="0" speed="8.00" length="4.07" shape="401.60,1192.80 401.05,1196.65 400.96,1196.80"/>
    </edge>
    <edge id=":B3_11" function="internal">
        <lane id=":B3_11_0" index="0" speed="3.65" length="1.44" shape="401.60,1192.80 400.80,1194.00"/>
    </edge>
    <edge id=":B3_18" function="internal">
        <lane id=":B3_18_0" index="0" speed="8.00" length="10.13" shape="400.96,1196.80 399.40,1199.40 396.65,1201.05 392.80,1201.60"/>
    </edge>
    <edge id=":B3_19" function="internal">
        <lane id=":B3_19_0" index="0" speed="3.65" length="3.23" shape="400.80,1194.00 400.00,1194.40 399.20,1194.00 398.40,1192.80"/>
    </edge>
    <edge id=":B3_12" function="internal">
        <lane id=":B3_12_0" index="0" speed="6.51" length="9.03" shape="392.80,1198.40 395.25,1198.05 397.00,1197.00 398.05,1195.25 398.40,1192.80"/>
    </edge>
    <edge id=":B3_13" function="internal">
        <lane id=":B3_13_0" index="0" speed="13.90" length="14.40" shape="392.80,1198.40 407.20,1198.40"/>
    </edge>
    <edge id=":B3_14" function="internal">
        <lane id=":B3_14_0" index="0" speed="8.00" length="14.19" shape="392.80,1198.40 396.65,1198.95 399.40,1200.60 401.05,1203.35 401.60,1207.20"/>
    </edge>
    <edge id=":B3_15" function="internal">
        <lane id=":B3_15_0" index="0" speed="3.65" length="4.67" shape="392.80,1198.40 394.00,1199.20 394.40,1200.00 394.00,1200.80 392.80,1201.60"/>
    </edge>
    <edge id=":B4_0" function="internal">
        <lane id=":B4_0_0" index="0" speed="13.90" length="14.40" shape="407.20,1601.60 392.80,1601.60"/>
    </edge>
    <edge id=":B4_1" function="internal">
        <lane id=":B4_1_0" index="0" speed="8.00" length="4.07" shape="407.20,1601.60 403.35,1601.05 403.20,1600.96"/>
    </edge>
    <edge id=":B4_2" function="internal">
        <lane id=":B4_2_0" index="0" speed="3.65" length="1.44" shape="407.20,1601.60 406.00,1600.80"/>
    </edge>
    <edge id=":B4_9" function="internal">
        <lane id=":B4_9_0" index="0" speed="8.00" length="10.13" shape="403.20,1600.96 400.60,1599.40 398.95,1596.65 398.40,1592.80"/>
    </edge>
    <edge id=":B4_10" function="internal">
        <lane id=":B4_10_0" index="0" speed="3.65" length="3.23" shape="406.00,1600.80 405.60,1600.00 406.00,1599.20 407.20,1598.40"/>
    </edge>
    <edge id=":B4_3" function="internal">
        <lane id=":B4_3_0" index="0" speed="6.51" length="9.03" shape="401.60,1592.80 401.95,1595.25 403.00,1597.00 404.75,1598.05 407.20,1598.40"/>
    </edge>
    <edge id=":B4_4" function="internal">
        <lane id=":B4_4_0" index="0" speed="8.00" length="14.19" shape="401.60,1592.80 401.05,1596.65 399.40,1599.40 396.65,1601.05 392.80,1601.60"/>
    </edge>
    <edge id=":B4_5" function="internal">
        <lane id=":B4_5_0" index="0" speed="3.65" length="4.67" shape="401.60,1592.80 400.80,1594.00 400.00,1594.40 399.20,1594.00 398.40,1592.80"/>
    </edge>
    <edge id=":B4_6" function="internal">
        <lane id=":B4_6_0" index="0" speed="6.51" length="9.03" shape="392.80,1598.40 395.25,1598.05 397.00,1597.00 398.05,1595.25 398.40,1592.80"/>
    </edge>
    <edge id=":B4_7" function="internal">
        <lane id=":B4_7_0" index="0" speed="13.90" length="14.40" shape="392.80,1598.40 407.20,1598.40"/>
    </edge>
    <edge id=":B4_8" function="internal">
        <lane id=":B4_8_0" index="0" speed="3.65" length="1.44" shape="392.80,1598.40 394.00,1599.20"/>
    </edge>
    <edge id=":B4_11" function="internal">
        <lane id=":B4_11_0" index="0" speed="3.65" length="3.23" shape="394.00,1599.20 394.40,1600.00 394.00,1600.80 392.80,1601.60"/>
    </edge>
    <edge id=":C0_0" function="internal">
        <lane id=":C0_0_0" index="0" speed="6.51" length="9.03" shape="798.40,7.20 798.05,4.75 797.00,3.00 795.25,1.95 792.80,1.60"/>
    </edge>
    <edge id=":C0_1" function="internal">
        <lane id=":C0_1_0" index="0" speed="8.00" length="14.19" shape="798.40,7.20 798.95,3.35 800.60,0.60 803.35,-1.05 807.20,-1.60"/>
    </edge>
    <edge id=":C0_2" function="internal">
        <lane id=":C0_2_0" index="0" speed="3.65" length="4.67" shape="798.40,7.20 799.20,6.00 800.00,5.60 800.80,6.00 801.60,7.20"/>
    </edge>
    <edge id=":C0_3" function="internal">
        <lane id=":C0_3_0" index="0" speed="6.51" length="9.03" shape="807.20,1.60 804.75,1.95 803.00,3.00 801.95,4.75 801.60,7.20"/>
    </edge>
    <edge id=":C0_4" function="internal">
        <lane id=":C0_4_0" index="0" speed="13.90" length="14.40" shape="807.20,1.60 792.80,1.60"/>
    </edge>
    <edge id=":C0_5" function="internal">
        <lane id=":C0_5_0" index="0" speed="3.65" length="1.44" shape="807.20,1.60 806.00,0.80"/>
    </edge>
    <edge id=":C0_9" function="internal">
        <lane id=":C0_9_0" index="0" speed="3.65" length="3.23" shape="806.00,0.80 805.60,0.00 806.00,-0.80 807.20,-1.60"/>
    </edge>
    <edge id=":C0_6" function="internal">
        <lane id=":C0_6_0" index="0" speed="13.90" length="14.40" shape="792.80,-1.60 807.20,-1.60"/>
    </edge>
    <edge id=":C0_7" function="internal">
        <lane id=":C0_7_0" index="0" speed="8.00" length="4.07" shape="792.80,-1.60 796.65,-1.05 796.80,-0.96"/>
    </edge>
    <edge id=":C0_8" function="internal">
        <lane id=":C0_8_0" index="0" speed="3.65" length="1.44" shape="792.80,-1.60 794.00,-0.80"/>
    </edge>
    <edge id=":C0_10" function="internal">
        <lane id=":C0_10_0" index="0" speed="8.00" length="10.13" shape="796.80,-0.96 799.40,0.60 801.05,3.35 801.60,7.20"/>
    </edge>
    <edge id=":C0_11" function="internal">
        <lane id=":C0_11_0" index="0" speed="3.65" length="3.23" shape="794.00,-0.80 794.40,0.00 794.00,0.80 792.80,1.60"/>
    </edge>
    <edge id=":C1_0" function="internal">
        <lane id=":C1_0_0" index="0" speed="6.51" length="9.03" shape="798.40,407.20 798.05,404.75 797.00,403.00 795.25,401.95 792.80,401.60"/>
    </edge>
    <edge id=":C1_1" function="internal">
        <lane id=":C1_1_0" index="0" speed="13.90" length="14.40" shape="798.40,407.20 798.40,392.80"/>
    </edge>
    <edge id=":C1_2" function="internal">
        <lane id=":C1_2_0" index="0" speed="8.00" length="4.07" shape="798.40,407.20 798.95,403.35 799.04,403.20"/>
    </edge>
    <edge id=":C1_3" function="internal">
        <lane id=":C1_3_0" index="0" speed="3.65" length="1.44" shape="798.40,407.20 799.20,406.00"/>
    </edge>
    <edge id=":C1_16" function="internal">
        <lane id=":C1_16_0" index="0" speed="8.00" length="10.13" shape="799.04,403.20 800.60,400.60 803.35,398.95 807.20,398.40"/>
    </edge>
    <edge id=":C1_17" function="internal">
        <lane id=":C1_17_0" index="0" speed="3.65" length="3.23" shape="799.20,406.00 800.00,405.60 800.80,406.00 801.60,407.20"/>
    </edge>
    <edge id=":C1_4" function="internal">
        <lane id=":C1_4_0" index="0" speed="6.51" length="9.03" shape="807.20,401.60 804.75,401.95 803.00,403.00 801.95,404.75 801.60,407.20"/>
    </edge>
    <edge id=":C1_5" function="internal">
        <lane id=":C1_5_0" index="0" speed="13.90" length="14.40" shape="807.20,401.60 792.80,401.60"/>
    </edge>
    <edge id=":C1_6" function="internal">
        <lane id=":C1_6_0" index="0" speed="8.00" length="14.19" shape="807.20,401.60 803.35,401.05 800.60,399.40 798.95,396.65 798.40,392.80"/>
    </edge>
    <edge id=":C1_7" function="internal">
        <lane id=":C1_7_0" index="0" speed="3.65" length="4.67" shape="807.20,401.60 806.00,400.80 805.60,400.00 806.00,399.20 807.20,398.40"/>
    </edge>
    <edge id=":C1_8" function="internal">
        <lane id=":C1_8_0" index="0" speed="6.51" length="9.03" shape="801.60,392.80 801.95,395.25 803.00,397.00 804.75,398.05 807.20,398.40"/>
    </edge>
    <edge id=":C1_9" function="internal">
        <lane id=":C1_9_0" index="0" speed="13.90" length="14.40" shape="801.60,392.80 801.60,407.20"/>
    </edge>
    <edge id=":C1_10" function="internal">
        <lane id=":C1_10_0" index="0" speed="8.00" length="4.07" shape="801.60,392.80 801.05,396.65 800.96,396.80"/>
    </edge>
    <edge id=":C1_11" function="internal">
        <lane id=":C1_11_0" index="0" speed="3.65" length="1.44" shape="801.60,392.80 800.80,394.00"/>
    </edge>
    <edge id=":C1_18" function="internal">
        <lane id=":C1_18_0" index="0" speed="8.00" length="10.13" shape="800.96,396.80 799.40,399.40 796.65,401.05 792.80,401.60"/>
    </edge>
    <edge id=":C1_19" function="internal">
        <lane id=":C1_19_0" index="0" speed="3.65" length="3.23" shape="800.80,394.00 800.00,394.40 799.20,394.00 798.40,392.80"/>
    </edge>
    <edge id=":C1_12" function="internal">
        <lane id=":C1_12_0" index="0" speed="6.51" length="9.03" shape="792.80,398.40 795.25,398.05 797.00,397.00 798.05,395.25 798.40,392.80"/>
    </edge>
    <edge id=":C1_13" function="internal">
        <lane id=":C1_13_0" index="0" speed="13.90" length="14.40" shape="792.80,398.40 807.20,398.40"/>
    </edge>
    <edge id=":C1_14" function="internal">
        <lane id=":C1_14_0" index="0" speed="8.00" length="14.19" shape="792.80,398.40 796.65,398.95 799.40,400.60 801.05,403.35 801.60,407.20"/>
    </edge>
    <edge id=":C1_15" function="internal">
        <lane id=":C1_15_0" index="0" speed="3.65" length="4.67" shape="792.80,398.40 794.00,399.20 794.40,400.00 794.00,400.80 792.80,401.60"/>
    </edge>
    <edge id=":C2_0" function="internal">
        <lane id=":C2_0_0" index="0" speed="6.51" length="9.03" shape="798.40,807.20 798.05,804.75 797.00,803.00 795.25,801.95 792.80,801.60"/>
    </edge>
    <edge id=":C2_1" function="internal">
        <lane id=":C2_1_0" index="0" speed="13.90" length="14.40" shape="798.40,807.20 798.40,792.80"/>
    </edge>
    <edge id=":C2_2" function="internal">
        <lane id=":C2_2_0" index="0" speed="8.00" length="4.07" shape="798.40,807.20 798.95,803.35 799.04,803.20"/>
    </edge>
    <edge id=":C2_3" function="internal">
        <lane id=":C2_3_0" index="0" speed="3.65" length="1.44" shape="798.40,807.20 799.20,806.00"/>
    </edge>
    <edge id=":C2_16" function="internal">
        <lane id=":C2_16_0" index="0" speed="8.00" length="10.13" shape="799.04,803.20 800.60,800.60 803.35,798.95 807.20,798.40"/>
    </edge>
    <edge id=":C2_17" function="internal">