<configuration>
    <input>
        <net-file value="grid5x5.net.xml"/>
        <route-files value="grid5x5_indian.rou.xml"/>
    </input>
    <time>
        <begin value="0"/>
        <end value="3600"/>
    </time>
</configuration>
